*LTspice
*
*LM358
*Inverting summing operational amplifier
*AE01010358
*
*netlist
.include LM358_inv_sum.cir
*
*params
.param VPOS=12
.param VNEG=-12
*
.param VOFFSET1=0
.param VAMPL1=0.5
.param FREQ1=1K
*
.param VOFFSET2=0
.param VAMPL2=1
.param FREQ2=1K
*
.param VOFFSET3=0
.param VAMPL3=2
.param FREQ3=1K
*
.param RIN1=1K
.param RIN2=1K
.param RIN3=1K
.param RLOOP=2K
*
*transient response
.tran 0 4m 0 ;uic startup
*
.backanno
.op
