*LTspice
*
*LM358
*Differential operational amplifier
*AE01010358
*
*netlist
.include LM358_diff.cir
*
*params
.param VPOS=12
.param VNEG=-12
*
.param VOFFSET1=0
.param VAMPL1=2
.param FREQ1=1K
*
.param VOFFSET2=0
.param VAMPL2=1
.param FREQ2=1K
*
.param RIN1=1K
.param RLOOP=1K
.param RIN2=1K
.param RREF=1K
*
*transient response
.tran 0 4m 0 ;uic startup
*
.backanno
.op
